VERS 240415 4397 1020103 1020103
MODE SEQ
NAME Lazuli Mark 11
AUTH Daewook Kim
IWDP 1
PFIL 0 0 0
LANG 0
UNIT MM X W X CM MR CPMM
ENPD 3000
ENVD 20 1 0
GFAC 0 0
GCAT SCHOTT 
RAIM 0 0 1 1 0 0 0 0 0 1
PUSH 0 0 0 0 0 0
SDMA 10 0 0
OMMA 1 1
FTYP 0 0 15 1 1 0 0 15
ROPD 2
HYPR 0
PICB 1
XFLN 0.17999999999999999 0.13500000000000001 0.089999999999999997 0.17999999999999999 0 0 0.27000000000000002 0 0 0.089999999999999997 0.17999999999999999 0.089999999999999997
YFLN -0.074999999999999997 -0.037499999999999999 0 -0.14999999999999999 0 -0.074999999999999997 -0.14999999999999999 0.074999999999999997 -0.14999999999999999 -0.14999999999999999 0.0080000000000000002 -0.074999999999999997
FWGN 1 1 1 1 1 1 1 1 1 1 1 1
VDXN 0 0 0 0 0 0 0 0 0 0 0 0
VDYN 0 0 0 0 0 0 0 0 0 0 0 0
VCXN 0 0 0 0 0 0 0 0 0 0 0 0
VCYN 0 0 0 0 0 0 0 0 0 0 0 0
VANN 0 0 0 0 0 0 0 0 0 0 0 0
FENF 15 15
FEFD 0.245 -0.074999999999999997 1 0 0 0 0 0
FEFD 0.20999999999999999 -0.023 1 0 0 0 0 0
FEFD 0.075999999999999998 0.064000000000000001 1 0 0 0 0 0
FCOM 1 Science Zone
FCOM 2 Science Zone
FCOM 3 Science Zone
FCOM 4 Science Zone
FCOM 7 Field Boundary
FCOM 8 Field Boundary
FCOM 9 Field Boundary
FCOM 10 Field Boundary
FCOM 11 Field Boundary
FCOM 13 Field Boundary
FCOM 14 Field Boundary
FCOM 15 Field Boundary
WAVM 1 0.63300000000000001 1
WAVM 2 0.20000000000000001 1
WAVM 3 0.55000000000000004 1
WAVM 4 0.55000000000000004 1
WAVM 5 0.55000000000000004 1
WAVM 6 0.55000000000000004 1
WAVM 7 0.55000000000000004 1
WAVM 8 0.55000000000000004 1
WAVM 9 0.55000000000000004 1
WAVM 10 0.55000000000000004 1
WAVM 11 0.55000000000000004 1
WAVM 12 0.55000000000000004 1
WAVM 13 0.55000000000000004 1
WAVM 14 0.55000000000000004 1
WAVM 15 0.55000000000000004 1
WAVM 16 0.55000000000000004 1
WAVM 17 0.55000000000000004 1
WAVM 18 0.55000000000000004 1
WAVM 19 0.55000000000000004 1
WAVM 20 0.55000000000000004 1
WAVM 21 0.55000000000000004 1
WAVM 22 0.55000000000000004 1
WAVM 23 0.55000000000000004 1
WAVM 24 0.55000000000000004 1
PWAV 1
POLS 1 0 1 0 0 1 0
GLRS 7 0
GSTD 0 100.000 100.000 100.000 100.000 100.000 100.000 0 1 1 0 0 1 1 1 1 1 1
NSCD 100 500 0 0.001 10 9.9999999999999995e-07 0 0 0 0 0 0 1000000 0 2
COFN QF "COATING.DAT" "SCATTER_PROFILE.DAT" "ABG_DATA.DAT" "PROFILE.GRD"
COFN COATING.DAT SCATTER_PROFILE.DAT ABG_DATA.DAT PROFILE.GRD
LUID 1464
EERA 0 0 0 10
SURF 0
  SSID 0
  TYPE STANDARD
  FIMP 

  CURV 0.0 0 0 0 0 ""
  HIDE 0 0 0 0 0 0 0 0 0 0 0 0
  MIRR 2 0
  SLAB 8
  DISZ INFINITY
  DIAM 0 0 0 0 1 ""
  MEMA 0 0 0 0 1 ""
  POPS 0 0 0 0 0 0 0 0 1 1 1 1 0 0 0 0
SURF 1
  SSID 1459
  COMM Telescope start
  TYPE STANDARD
  FIMP 
  CURV 0.0 0 0 0 0 ""
  HIDE 0 0 0 0 0 0 0 0 0 0 0 0
  MIRR 2 0
  SLAB 9
  DISZ 4302.9700000000003
  DIAM 1675.5161560133449 0 0 0 1 ""
  MEMA 1675.5161560133449 0 0 0 1 ""
  POPS 0 0 0 0 0 0 0 0 1 1 1 1 0 0 0 0
SURF 2
  SSID 1
  COMM Field Bias
  TYPE COORDBRK
  FIMP 

  CURV 0.0 0 0.0 0.0 0
  HIDE 0 0 0 0 0 0 0 0 0 0 0 0
  MIRR 2 0
  SLAB 5
  PARM 1 0
  PARM 2 0
  PARM 3 -11.258749570000001
  PARM 4 0
  PARM 5 0
  PARM 6 0
  DISZ 0
  DIAM 0 0 0 0 1 ""
  MEMA 0 0 0 0 1 ""
  POPS 0 0 0 0 0 0 0 0 1 1 1 1 0 0 0 0
SURF 3
  SSID 27
  COMM stop
  STOP
  TYPE STANDARD
  FIMP 

  CURV 0.0 0 0 0 0 ""
  HIDE 0 0 0 0 0 0 0 1 0 0 0 0
  MIRR 2 0
  SLAB 11
  DISZ 0
  DIAM 1530.2307202513907 0 0 0 1 ""
  MEMA 1530.2307202513907 0 0 0 1 ""
  POPS 0 0 0 0 0 0 0 0 1 1 1 1 0 0 0 0
  ELAP 1500.01 1529.43321272505 0
SURF 4
  SSID 1463
  TYPE COORDBRK
  FIMP 
  CURV 0.0 0 0.0 0.0 0
  HIDE 0 0 0 0 0 0 0 0 0 0 0 0
  MIRR 2 0
  SLAB 15
  PARM 1 0
  PARM 2 0
  PARM 3 11.258749570000001
  PPAR 3 2 -1.000000000000E+00 0.000000000000E+00 0
  PARM 4 0
  PARM 5 0
  PARM 6 1
  DISZ 312.38999999999942
  TCOM 1 4615.3599999999997
  DIAM 0 0 0 0 1 ""
  MEMA 0 0 0 0 1 ""
  POPS 0 0 0 0 0 0 0 0 1 1 1 1 0 0 0 0
SURF 5
  SSID 1462
  COMM Field Bias
  TYPE COORDBRK
  FIMP 
  CURV 0.0 0 0.0 0.0 0
  HIDE 0 0 0 0 0 0 0 0 0 0 0 0
  MIRR 2 0
  SLAB 14
  PARM 1 0
  PARM 2 0
  PARM 3 0.20000000000000001
  PARM 4 0
  PARM 5 0
  PARM 6 0
  DISZ 0
  DIAM 0 0 0 0 1 ""
  MEMA 0 0 0 0 1 ""
  POPS 0 0 0 0 0 0 0 0 1 1 1 1 0 0 0 0
SURF 6
  SSID 1460
  COMM Off axis
  TYPE COORDBRK
  FIMP 
  CURV 0.0 0 0.0 0.0 0
  HIDE 0 0 0 0 0 0 0 0 0 0 0 0
  MIRR 2 0
  SLAB 1
  PARM 1 0
  PARM 2 -1900
  PARM 3 0
  PARM 4 0
  PARM 5 0
  PARM 6 0
  DISZ 0
  DIAM 0 0 0 0 1 ""
  MEMA 0 0 0 0 1 ""
  POPS 0 0 0 0 0 0 0 0 1 1 1 1 0 0 0 0
SURF 7
  SSID 3
  COMM 3000mm CA dia. M1
  TYPE STANDARD
  FIMP 

  CURV -1.067098742061318935E-04 0 0 0 0 ""
  HIDE 0 0 0 0 0 0 0 0 0 0 0 0
  MIRR 1 115.384
  SLAB 2
  DISZ -4440
  GLAS MIRROR 0 0 1.5 40 0 0 0 0 0 0 
  CONI -0.99385364904129125
  DIAM 3738.5036405455503 0 0 0 1 ""
  MEMA 1500.0999999999999 0 0 0 1 ""
  POPS 0 0 0 0 0 0 0 0 1 1 1 1 0 0 0 0
  CLAP 0 1500.0999999999999 0
  OBDC 0.000000000000E+00 1.900000000000E+03
SURF 8
  SSID 4
  COMM 220mm CA dia. M2
  TYPE STANDARD
  FIMP 

  CURV -1.486343507359631951E-03 0 0 0 0 ""
  HIDE 0 0 0 0 0 0 0 0 0 0 0 0
  MIRR 1 100
  SLAB 4
  DISZ 1431.2480468756353
  GLAS MIRROR 0 0 1.5 40 0 0 0 0 0 0 
  CONI -2.7600798790182837
  DIAM 229.6248053027706 0 0 0 1 ""
  MEMA 110 0 0 0 1 ""
  VCON
  POPS 0 0 0 0 0 0 0 0 1 1 1 1 0 0 0 0
  CLAP 0 110 0
  OBDC 0.000000000000E+00 1.150000000000E+02
SURF 9
  SSID 5
  COMM 380X220mm CA M3
  TYPE STANDARD
  FIMP 

  CURV -1.355209620642092421E-03 0 0 0 0 ""
  HIDE 0 0 0 0 0 0 0 0 0 0 0 0
  MIRR 1 28.846
  SLAB 3
  DISZ -490
  GLAS MIRROR 0 0 1.5 40 0 0 0 0 0 0 
  CONI -0.59645551009734266
  DIAM 183.89549324507115 0 0 0 1 ""
  MEMA 183.89549324507115 0 0 0 1 ""
  VCON
  POPS 0 0 0 0 0 0 0 0 1 1 1 1 0 0 0 0
  SQAP 190 110 0
  OBDC 0.000000000000E+00 1.500000000000E+01
SURF 10
  SSID 7
  TYPE COORDBRK
  FIMP 

  CURV 0.0 0 0.0 0.0 0
  HIDE 0 0 0 0 0 0 0 0 0 0 0 0
  MIRR 2 0
  SLAB 10
  PARM 1 0
  PARM 2 0
  PARM 3 6
  PARM 4 0
  PARM 5 0
  PARM 6 0
  DISZ 0
  DIAM 0 0 0 0 1 ""
  MEMA 0 0 0 0 1 ""
  POPS 0 0 0 0 0 0 0 0 1 1 1 1 0 0 0 0
SURF 11
  SSID 8
  COMM 110X80mm CA dia. M4 Flat
  TYPE STANDARD
  FIMP 

  CURV 0.0 0 0 0 0 ""
  HIDE 0 0 0 0 0 0 0 0 0 0 0 0
  MIRR 1 90
  SLAB 2
  DISZ 0
  GLAS MIRROR 0 0 1.5 40 0 0 0 0 0 0 
  DIAM 79.160714041414053 0 0 0 1 ""
  MEMA 79.160714041414053 0 0 0 1 ""
  POPS 0 0 0 0 0 0 0 0 1 1 1 1 0 0 0 0
  ELAP 55 40 0
  OBDC 0.000000000000E+00 -4.200000000000E+01
SURF 12
  SSID 9
  TYPE COORDBRK
  FIMP 

  CURV 0.0 0 0.0 0.0 0
  HIDE 0 0 0 0 0 0 0 0 0 0 0 0
  MIRR 2 0
  SLAB 6
  PARM 1 0
  PARM 2 0
  PARM 3 6
  PPAR 3 10 1.000000000000E+00 0.000000000000E+00 0
  PARM 4 0
  PPAR 4 10 1.000000000000E+00 0.000000000000E+00 0
  PARM 5 0
  PARM 6 1
  DISZ 771.98264400342089
  VDSZ 0 0
  DIAM 0 0 0 0 1 ""
  MEMA 0 0 0 0 1 ""
  POPS 0 0 0 0 0 0 0 0 1 1 1 1 0 0 0 0
SURF 13
  SSID 1458
  TYPE COORDBRK
  FIMP 
  CURV 0.0 0 0.0 0.0 0
  HIDE 0 0 0 0 0 0 0 0 0 0 0 0
  MIRR 2 0
  SLAB 12
  PARM 1 0
  PARM 2 0
  PARM 3 0
  PARM 4 0
  PARM 5 0
  PARM 6 0
  DISZ 0
  DIAM 0 0 0 0 1 ""
  MEMA 0 0 0 0 1 ""
  POPS 0 0 0 0 0 0 0 0 1 1 1 1 0 0 0 0
SURF 14
  SSID 1461
  TYPE STANDARD
  FIMP 
  CURV 0.0 0 0 0 0 ""
  HIDE 0 0 0 0 0 0 0 0 0 0 0 0
  MIRR 2 0
  SLAB 13
  DISZ 0
  DIAM 223.8858636145402 0 0 0 1 ""
  MEMA 223.8858636145402 0 0 0 1 ""
  POPS 0 0 0 0 0 0 0 0 1 1 1 1 0 0 0 0
SURF 15
  SSID 10
  COMM 420 x 180mm Flat Detector
  TYPE STANDARD
  FIMP 

  CURV 0.0 0 0 0 0 ""
  HIDE 0 0 0 0 0 0 0 0 0 0 0 0
  MIRR 2 0
  SLAB 7
  DISZ 0
  DIAM 203.53260328594561 0 0 0 1 ""
  MEMA 203.53260328594561 0 0 0 1 ""
  POPS 0 0 0 0 0 0 0 0 1 1 1 1 0 0 0 0
  SQAP 210 90 0
  OBDC 0.000000000000E+00 -1.200000000000E+02
DMFS 0 0 0 0 0 0 0 0 0 0
BLNK Sequential merit function: RMS wavefront centroid GQ 6 rings 10 arms
BLNK No air or glass constraints.
BLNK Operands for field 1.
OPDX 0 1 0 0 0.056782865260573891 0.17475968960610883 0 0.0017941058887945894 0 0
OPDX 0 1 0 0 0.1271841673029985 0.3914326178977815 0 0.0037778863586184321 0 0
OPDX 0 1 0 0 0.1906638378580742 0.58680295491044654 0 0.0048999832645528546 0 0
OPDX 0 1 0 0 0.24318471116777957 0.74844558205379386 0 0.0048999832645528546 0 0
OPDX 0 1 0 0 0.28163041455064697 0.86676929043036777 0 0.0037778863586184321 0 0
OPDX 0 1 0 0 0.30375517942139829 0.9348623150369525 0 0.0017941058887945894 0 0
OPDX 0 1 0 0 0.14865947123078804 0.10800742803995696 0 0.0017941058887945894 0 0
OPDX 0 1 0 0 0.33297247283010301 0.24191866216617935 0 0.0037778863586184321 0 0
OPDX 0 1 0 0 0.49916440793793698 0.36266417083352798 0 0.0048999832645528546 0 0
OPDX 0 1 0 0 0.63666583938157273 0.46256480843894288 0 0.0048999832645528546 0 0
OPDX 0 1 0 0 0.73731799755931637 0.53569288189059616 0 0.0037778863586184321 0 0
OPDX 0 1 0 0 0.79524138398404309 0.57777668549424854 0 0.0017941058887945894 0 0
OPDX 0 1 0 0 0.18375321194042835 0 0 0.0017941058887945894 0 0
OPDX 0 1 0 0 0.41157661105420906 0 0 0.0037778863586184321 0 0
OPDX 0 1 0 0 0.61700114015972574 0 0 0.0048999832645528546 0 0
OPDX 0 1 0 0 0.78696225642758655 0 0 0.0048999832645528546 0 0
OPDX 0 1 0 0 0.91137516601733903 0 0 0.0037778863586184321 0 0
OPDX 0 1 0 0 0.98297240912528971 0 0 0.0017941058887945894 0 0
OPDX 0 1 0 0 0.14865947123078804 -0.10800742803995696 0 0.0017941058887945894 0 0
OPDX 0 1 0 0 0.33297247283010301 -0.24191866216617935 0 0.0037778863586184321 0 0
OPDX 0 1 0 0 0.49916440793793698 -0.36266417083352798 0 0.0048999832645528546 0 0
OPDX 0 1 0 0 0.63666583938157273 -0.46256480843894288 0 0.0048999832645528546 0 0
OPDX 0 1 0 0 0.73731799755931637 -0.53569288189059616 0 0.0037778863586184321 0 0
OPDX 0 1 0 0 0.79524138398404309 -0.57777668549424854 0 0.0017941058887945894 0 0
OPDX 0 1 0 0 0.056782865260573891 -0.17475968960610883 0 0.0017941058887945894 0 0
OPDX 0 1 0 0 0.1271841673029985 -0.3914326178977815 0 0.0037778863586184321 0 0
OPDX 0 1 0 0 0.1906638378580742 -0.58680295491044654 0 0.0048999832645528546 0 0
OPDX 0 1 0 0 0.24318471116777957 -0.74844558205379386 0 0.0048999832645528546 0 0
OPDX 0 1 0 0 0.28163041455064697 -0.86676929043036777 0 0.0037778863586184321 0 0
OPDX 0 1 0 0 0.30375517942139829 -0.9348623150369525 0 0.0017941058887945894 0 0
OPDX 0 1 0 0 -0.056782865260573925 -0.17475968960610877 0 0.0017941058887945894 0 0
OPDX 0 1 0 0 -0.12718416730299856 -0.39143261789778139 0 0.0037778863586184321 0 0
OPDX 0 1 0 0 -0.19066383785807431 -0.58680295491044643 0 0.0048999832645528546 0 0
OPDX 0 1 0 0 -0.24318471116777968 -0.74844558205379363 0 0.0048999832645528546 0 0
OPDX 0 1 0 0 -0.28163041455064713 -0.86676929043036754 0 0.0037778863586184321 0 0
OPDX 0 1 0 0 -0.30375517942139846 -0.93486231503695227 0 0.0017941058887945894 0 0
OPDX 0 1 0 0 -0.14865947123078802 -0.1080074280399569 0 0.0017941058887945894 0 0
OPDX 0 1 0 0 -0.33297247283010295 -0.24191866216617922 0 0.0037778863586184321 0 0
OPDX 0 1 0 0 -0.49916440793793693 -0.36266417083352775 0 0.0048999832645528546 0 0
OPDX 0 1 0 0 -0.63666583938157262 -0.46256480843894265 0 0.0048999832645528546 0 0
OPDX 0 1 0 0 -0.73731799755931626 -0.53569288189059594 0 0.0037778863586184321 0 0
OPDX 0 1 0 0 -0.79524138398404298 -0.57777668549424821 0 0.0017941058887945894 0 0
OPDX 0 1 0 0 -0.18375321194042835 1.4070235911248274e-16 0 0.0017941058887945894 0 0
OPDX 0 1 0 0 -0.41157661105420906 3.1514986605851528e-16 0 0.0037778863586184321 0 0
OPDX 0 1 0 0 -0.61700114015972574 4.724462504835531e-16 0 0.0048999832645528546 0 0
OPDX 0 1 0 0 -0.78696225642758655 6.025878124391163e-16 0 0.0048999832645528546 0 0
OPDX 0 1 0 0 -0.91137516601733903 6.9785248671866723e-16 0 0.0037778863586184321 0 0
OPDX 0 1 0 0 -0.98297240912528971 7.5267547949717992e-16 0 0.0017941058887945894 0 0
OPDX 0 1 0 0 -0.14865947123078796 0.10800742803995707 0 0.0017941058887945894 0 0
OPDX 0 1 0 0 -0.33297247283010278 0.2419186621661796 0 0.0037778863586184321 0 0
OPDX 0 1 0 0 -0.4991644079379367 0.36266417083352831 0 0.0048999832645528546 0 0
OPDX 0 1 0 0 -0.6366658393815724 0.46256480843894332 0 0.0048999832645528546 0 0
OPDX 0 1 0 0 -0.73731799755931593 0.53569288189059672 0 0.0037778863586184321 0 0
OPDX 0 1 0 0 -0.79524138398404265 0.5777766854942491 0 0.0017941058887945894 0 0
OPDX 0 1 0 0 -0.056782865260573752 0.17475968960610883 0 0.0017941058887945894 0 0
OPDX 0 1 0 0 -0.12718416730299817 0.39143261789778155 0 0.0037778863586184321 0 0
OPDX 0 1 0 0 -0.19066383785807373 0.58680295491044665 0 0.0048999832645528546 0 0
OPDX 0 1 0 0 -0.24318471116777896 0.74844558205379397 0 0.0048999832645528546 0 0
OPDX 0 1 0 0 -0.28163041455064625 0.86676929043036788 0 0.0037778863586184321 0 0
OPDX 0 1 0 0 -0.30375517942139751 0.93486231503695261 0 0.0017941058887945894 0 0
BLNK Operands for field 2.
OPDX 0 1 0 -0.5 0.056782865260573891 0.17475968960610883 0 0.0017941058887945894 0 0
OPDX 0 1 0 -0.5 0.1271841673029985 0.3914326178977815 0 0.0037778863586184321 0 0
OPDX 0 1 0 -0.5 0.1906638378580742 0.58680295491044654 0 0.0048999832645528546 0 0
OPDX 0 1 0 -0.5 0.24318471116777957 0.74844558205379386 0 0.0048999832645528546 0 0
OPDX 0 1 0 -0.5 0.28163041455064697 0.86676929043036777 0 0.0037778863586184321 0 0
OPDX 0 1 0 -0.5 0.30375517942139829 0.9348623150369525 0 0.0017941058887945894 0 0
OPDX 0 1 0 -0.5 0.14865947123078804 0.10800742803995696 0 0.0017941058887945894 0 0
OPDX 0 1 0 -0.5 0.33297247283010301 0.24191866216617935 0 0.0037778863586184321 0 0
OPDX 0 1 0 -0.5 0.49916440793793698 0.36266417083352798 0 0.0048999832645528546 0 0
OPDX 0 1 0 -0.5 0.63666583938157273 0.46256480843894288 0 0.0048999832645528546 0 0
OPDX 0 1 0 -0.5 0.73731799755931637 0.53569288189059616 0 0.0037778863586184321 0 0
OPDX 0 1 0 -0.5 0.79524138398404309 0.57777668549424854 0 0.0017941058887945894 0 0
OPDX 0 1 0 -0.5 0.18375321194042835 0 0 0.0017941058887945894 0 0
OPDX 0 1 0 -0.5 0.41157661105420906 0 0 0.0037778863586184321 0 0
OPDX 0 1 0 -0.5 0.61700114015972574 0 0 0.0048999832645528546 0 0
OPDX 0 1 0 -0.5 0.78696225642758655 0 0 0.0048999832645528546 0 0
OPDX 0 1 0 -0.5 0.91137516601733903 0 0 0.0037778863586184321 0 0
OPDX 0 1 0 -0.5 0.98297240912528971 0 0 0.0017941058887945894 0 0
OPDX 0 1 0 -0.5 0.14865947123078804 -0.10800742803995696 0 0.0017941058887945894 0 0
OPDX 0 1 0 -0.5 0.33297247283010301 -0.24191866216617935 0 0.0037778863586184321 0 0
OPDX 0 1 0 -0.5 0.49916440793793698 -0.36266417083352798 0 0.0048999832645528546 0 0
OPDX 0 1 0 -0.5 0.63666583938157273 -0.46256480843894288 0 0.0048999832645528546 0 0
OPDX 0 1 0 -0.5 0.73731799755931637 -0.53569288189059616 0 0.0037778863586184321 0 0
OPDX 0 1 0 -0.5 0.79524138398404309 -0.57777668549424854 0 0.0017941058887945894 0 0
OPDX 0 1 0 -0.5 0.056782865260573891 -0.17475968960610883 0 0.0017941058887945894 0 0
OPDX 0 1 0 -0.5 0.1271841673029985 -0.3914326178977815 0 0.0037778863586184321 0 0
OPDX 0 1 0 -0.5 0.1906638378580742 -0.58680295491044654 0 0.0048999832645528546 0 0
OPDX 0 1 0 -0.5 0.24318471116777957 -0.74844558205379386 0 0.0048999832645528546 0 0
OPDX 0 1 0 -0.5 0.28163041455064697 -0.86676929043036777 0 0.0037778863586184321 0 0
OPDX 0 1 0 -0.5 0.30375517942139829 -0.9348623150369525 0 0.0017941058887945894 0 0
OPDX 0 1 0 -0.5 -0.056782865260573925 -0.17475968960610877 0 0.0017941058887945894 0 0
OPDX 0 1 0 -0.5 -0.12718416730299856 -0.39143261789778139 0 0.0037778863586184321 0 0
OPDX 0 1 0 -0.5 -0.19066383785807431 -0.58680295491044643 0 0.0048999832645528546 0 0
OPDX 0 1 0 -0.5 -0.24318471116777968 -0.74844558205379363 0 0.0048999832645528546 0 0
OPDX 0 1 0 -0.5 -0.28163041455064713 -0.86676929043036754 0 0.0037778863586184321 0 0
OPDX 0 1 0 -0.5 -0.30375517942139846 -0.93486231503695227 0 0.0017941058887945894 0 0
OPDX 0 1 0 -0.5 -0.14865947123078802 -0.1080074280399569 0 0.0017941058887945894 0 0
OPDX 0 1 0 -0.5 -0.33297247283010295 -0.24191866216617922 0 0.0037778863586184321 0 0
OPDX 0 1 0 -0.5 -0.49916440793793693 -0.36266417083352775 0 0.0048999832645528546 0 0
OPDX 0 1 0 -0.5 -0.63666583938157262 -0.46256480843894265 0 0.0048999832645528546 0 0
OPDX 0 1 0 -0.5 -0.73731799755931626 -0.53569288189059594 0 0.0037778863586184321 0 0
OPDX 0 1 0 -0.5 -0.79524138398404298 -0.57777668549424821 0 0.0017941058887945894 0 0
OPDX 0 1 0 -0.5 -0.18375321194042835 1.4070235911248274e-16 0 0.0017941058887945894 0 0
OPDX 0 1 0 -0.5 -0.41157661105420906 3.1514986605851528e-16 0 0.0037778863586184321 0 0
OPDX 0 1 0 -0.5 -0.61700114015972574 4.724462504835531e-16 0 0.0048999832645528546 0 0
OPDX 0 1 0 -0.5 -0.78696225642758655 6.025878124391163e-16 0 0.0048999832645528546 0 0
OPDX 0 1 0 -0.5 -0.91137516601733903 6.9785248671866723e-16 0 0.0037778863586184321 0 0
OPDX 0 1 0 -0.5 -0.98297240912528971 7.5267547949717992e-16 0 0.0017941058887945894 0 0
OPDX 0 1 0 -0.5 -0.14865947123078796 0.10800742803995707 0 0.0017941058887945894 0 0
OPDX 0 1 0 -0.5 -0.33297247283010278 0.2419186621661796 0 0.0037778863586184321 0 0
OPDX 0 1 0 -0.5 -0.4991644079379367 0.36266417083352831 0 0.0048999832645528546 0 0
OPDX 0 1 0 -0.5 -0.6366658393815724 0.46256480843894332 0 0.0048999832645528546 0 0
OPDX 0 1 0 -0.5 -0.73731799755931593 0.53569288189059672 0 0.0037778863586184321 0 0
OPDX 0 1 0 -0.5 -0.79524138398404265 0.5777766854942491 0 0.0017941058887945894 0 0
OPDX 0 1 0 -0.5 -0.056782865260573752 0.17475968960610883 0 0.0017941058887945894 0 0
OPDX 0 1 0 -0.5 -0.12718416730299817 0.39143261789778155 0 0.0037778863586184321 0 0
OPDX 0 1 0 -0.5 -0.19066383785807373 0.58680295491044665 0 0.0048999832645528546 0 0
OPDX 0 1 0 -0.5 -0.24318471116777896 0.74844558205379397 0 0.0048999832645528546 0 0
OPDX 0 1 0 -0.5 -0.28163041455064625 0.86676929043036788 0 0.0037778863586184321 0 0
OPDX 0 1 0 -0.5 -0.30375517942139751 0.93486231503695261 0 0.0017941058887945894 0 0
BLNK Operands for field 3.
OPDX 0 1 1 -1 0.056782865260573891 0.17475968960610883 0 0.0017941058887945894 0 0
OPDX 0 1 1 -1 0.1271841673029985 0.3914326178977815 0 0.0037778863586184321 0 0
OPDX 0 1 1 -1 0.1906638378580742 0.58680295491044654 0 0.0048999832645528546 0 0
OPDX 0 1 1 -1 0.24318471116777957 0.74844558205379386 0 0.0048999832645528546 0 0
OPDX 0 1 1 -1 0.28163041455064697 0.86676929043036777 0 0.0037778863586184321 0 0
OPDX 0 1 1 -1 0.30375517942139829 0.9348623150369525 0 0.0017941058887945894 0 0
OPDX 0 1 1 -1 0.14865947123078804 0.10800742803995696 0 0.0017941058887945894 0 0
OPDX 0 1 1 -1 0.33297247283010301 0.24191866216617935 0 0.0037778863586184321 0 0
OPDX 0 1 1 -1 0.49916440793793698 0.36266417083352798 0 0.0048999832645528546 0 0
OPDX 0 1 1 -1 0.63666583938157273 0.46256480843894288 0 0.0048999832645528546 0 0
OPDX 0 1 1 -1 0.73731799755931637 0.53569288189059616 0 0.0037778863586184321 0 0
OPDX 0 1 1 -1 0.79524138398404309 0.57777668549424854 0 0.0017941058887945894 0 0
OPDX 0 1 1 -1 0.18375321194042835 0 0 0.0017941058887945894 0 0
OPDX 0 1 1 -1 0.41157661105420906 0 0 0.0037778863586184321 0 0
OPDX 0 1 1 -1 0.61700114015972574 0 0 0.0048999832645528546 0 0
OPDX 0 1 1 -1 0.78696225642758655 0 0 0.0048999832645528546 0 0
OPDX 0 1 1 -1 0.91137516601733903 0 0 0.0037778863586184321 0 0
OPDX 0 1 1 -1 0.98297240912528971 0 0 0.0017941058887945894 0 0
OPDX 0 1 1 -1 0.14865947123078804 -0.10800742803995696 0 0.0017941058887945894 0 0
OPDX 0 1 1 -1 0.33297247283010301 -0.24191866216617935 0 0.0037778863586184321 0 0
OPDX 0 1 1 -1 0.49916440793793698 -0.36266417083352798 0 0.0048999832645528546 0 0
OPDX 0 1 1 -1 0.63666583938157273 -0.46256480843894288 0 0.0048999832645528546 0 0
OPDX 0 1 1 -1 0.73731799755931637 -0.53569288189059616 0 0.0037778863586184321 0 0
OPDX 0 1 1 -1 0.79524138398404309 -0.57777668549424854 0 0.0017941058887945894 0 0
OPDX 0 1 1 -1 0.056782865260573891 -0.17475968960610883 0 0.0017941058887945894 0 0
OPDX 0 1 1 -1 0.1271841673029985 -0.3914326178977815 0 0.0037778863586184321 0 0
OPDX 0 1 1 -1 0.1906638378580742 -0.58680295491044654 0 0.0048999832645528546 0 0
OPDX 0 1 1 -1 0.24318471116777957 -0.74844558205379386 0 0.0048999832645528546 0 0
OPDX 0 1 1 -1 0.28163041455064697 -0.86676929043036777 0 0.0037778863586184321 0 0
OPDX 0 1 1 -1 0.30375517942139829 -0.9348623150369525 0 0.0017941058887945894 0 0
OPDX 0 1 1 -1 -0.056782865260573925 -0.17475968960610877 0 0.0017941058887945894 0 0
OPDX 0 1 1 -1 -0.12718416730299856 -0.39143261789778139 0 0.0037778863586184321 0 0
OPDX 0 1 1 -1 -0.19066383785807431 -0.58680295491044643 0 0.0048999832645528546 0 0
OPDX 0 1 1 -1 -0.24318471116777968 -0.74844558205379363 0 0.0048999832645528546 0 0
OPDX 0 1 1 -1 -0.28163041455064713 -0.86676929043036754 0 0.0037778863586184321 0 0
OPDX 0 1 1 -1 -0.30375517942139846 -0.93486231503695227 0 0.0017941058887945894 0 0
OPDX 0 1 1 -1 -0.14865947123078802 -0.1080074280399569 0 0.0017941058887945894 0 0
OPDX 0 1 1 -1 -0.33297247283010295 -0.24191866216617922 0 0.0037778863586184321 0 0
OPDX 0 1 1 -1 -0.49916440793793693 -0.36266417083352775 0 0.0048999832645528546 0 0
OPDX 0 1 1 -1 -0.63666583938157262 -0.46256480843894265 0 0.0048999832645528546 0 0
OPDX 0 1 1 -1 -0.73731799755931626 -0.53569288189059594 0 0.0037778863586184321 0 0
OPDX 0 1 1 -1 -0.79524138398404298 -0.57777668549424821 0 0.0017941058887945894 0 0
OPDX 0 1 1 -1 -0.18375321194042835 1.4070235911248274e-16 0 0.0017941058887945894 0 0
OPDX 0 1 1 -1 -0.41157661105420906 3.1514986605851528e-16 0 0.0037778863586184321 0 0
OPDX 0 1 1 -1 -0.61700114015972574 4.724462504835531e-16 0 0.0048999832645528546 0 0
OPDX 0 1 1 -1 -0.78696225642758655 6.025878124391163e-16 0 0.0048999832645528546 0 0
OPDX 0 1 1 -1 -0.91137516601733903 6.9785248671866723e-16 0 0.0037778863586184321 0 0
OPDX 0 1 1 -1 -0.98297240912528971 7.5267547949717992e-16 0 0.0017941058887945894 0 0
OPDX 0 1 1 -1 -0.14865947123078796 0.10800742803995707 0 0.0017941058887945894 0 0
OPDX 0 1 1 -1 -0.33297247283010278 0.2419186621661796 0 0.0037778863586184321 0 0
OPDX 0 1 1 -1 -0.4991644079379367 0.36266417083352831 0 0.0048999832645528546 0 0
OPDX 0 1 1 -1 -0.6366658393815724 0.46256480843894332 0 0.0048999832645528546 0 0
OPDX 0 1 1 -1 -0.73731799755931593 0.53569288189059672 0 0.0037778863586184321 0 0
OPDX 0 1 1 -1 -0.79524138398404265 0.5777766854942491 0 0.0017941058887945894 0 0
OPDX 0 1 1 -1 -0.056782865260573752 0.17475968960610883 0 0.0017941058887945894 0 0
OPDX 0 1 1 -1 -0.12718416730299817 0.39143261789778155 0 0.0037778863586184321 0 0
OPDX 0 1 1 -1 -0.19066383785807373 0.58680295491044665 0 0.0048999832645528546 0 0
OPDX 0 1 1 -1 -0.24318471116777896 0.74844558205379397 0 0.0048999832645528546 0 0
OPDX 0 1 1 -1 -0.28163041455064625 0.86676929043036788 0 0.0037778863586184321 0 0
OPDX 0 1 1 -1 -0.30375517942139751 0.93486231503695261 0 0.0017941058887945894 0 0
BLNK Operands for field 4.
OPDX 0 1 0.66666666666666663 -0.5 0.056782865260573891 0.17475968960610883 0 0.0017941058887945894 0 0
OPDX 0 1 0.66666666666666663 -0.5 0.1271841673029985 0.3914326178977815 0 0.0037778863586184321 0 0
OPDX 0 1 0.66666666666666663 -0.5 0.1906638378580742 0.58680295491044654 0 0.0048999832645528546 0 0
OPDX 0 1 0.66666666666666663 -0.5 0.24318471116777957 0.74844558205379386 0 0.0048999832645528546 0 0
OPDX 0 1 0.66666666666666663 -0.5 0.28163041455064697 0.86676929043036777 0 0.0037778863586184321 0 0
OPDX 0 1 0.66666666666666663 -0.5 0.30375517942139829 0.9348623150369525 0 0.0017941058887945894 0 0
OPDX 0 1 0.66666666666666663 -0.5 0.14865947123078804 0.10800742803995696 0 0.0017941058887945894 0 0
OPDX 0 1 0.66666666666666663 -0.5 0.33297247283010301 0.24191866216617935 0 0.0037778863586184321 0 0
OPDX 0 1 0.66666666666666663 -0.5 0.49916440793793698 0.36266417083352798 0 0.0048999832645528546 0 0
OPDX 0 1 0.66666666666666663 -0.5 0.63666583938157273 0.46256480843894288 0 0.0048999832645528546 0 0
OPDX 0 1 0.66666666666666663 -0.5 0.73731799755931637 0.53569288189059616 0 0.0037778863586184321 0 0
OPDX 0 1 0.66666666666666663 -0.5 0.79524138398404309 0.57777668549424854 0 0.0017941058887945894 0 0
OPDX 0 1 0.66666666666666663 -0.5 0.18375321194042835 0 0 0.0017941058887945894 0 0
OPDX 0 1 0.66666666666666663 -0.5 0.41157661105420906 0 0 0.0037778863586184321 0 0
OPDX 0 1 0.66666666666666663 -0.5 0.61700114015972574 0 0 0.0048999832645528546 0 0
OPDX 0 1 0.66666666666666663 -0.5 0.78696225642758655 0 0 0.0048999832645528546 0 0
OPDX 0 1 0.66666666666666663 -0.5 0.91137516601733903 0 0 0.0037778863586184321 0 0
OPDX 0 1 0.66666666666666663 -0.5 0.98297240912528971 0 0 0.0017941058887945894 0 0
OPDX 0 1 0.66666666666666663 -0.5 0.14865947123078804 -0.10800742803995696 0 0.0017941058887945894 0 0
OPDX 0 1 0.66666666666666663 -0.5 0.33297247283010301 -0.24191866216617935 0 0.0037778863586184321 0 0
OPDX 0 1 0.66666666666666663 -0.5 0.49916440793793698 -0.36266417083352798 0 0.0048999832645528546 0 0
OPDX 0 1 0.66666666666666663 -0.5 0.63666583938157273 -0.46256480843894288 0 0.0048999832645528546 0 0
OPDX 0 1 0.66666666666666663 -0.5 0.73731799755931637 -0.53569288189059616 0 0.0037778863586184321 0 0
OPDX 0 1 0.66666666666666663 -0.5 0.79524138398404309 -0.57777668549424854 0 0.0017941058887945894 0 0
OPDX 0 1 0.66666666666666663 -0.5 0.056782865260573891 -0.17475968960610883 0 0.0017941058887945894 0 0
OPDX 0 1 0.66666666666666663 -0.5 0.1271841673029985 -0.3914326178977815 0 0.0037778863586184321 0 0
OPDX 0 1 0.66666666666666663 -0.5 0.1906638378580742 -0.58680295491044654 0 0.0048999832645528546 0 0
OPDX 0 1 0.66666666666666663 -0.5 0.24318471116777957 -0.74844558205379386 0 0.0048999832645528546 0 0
OPDX 0 1 0.66666666666666663 -0.5 0.28163041455064697 -0.86676929043036777 0 0.0037778863586184321 0 0
OPDX 0 1 0.66666666666666663 -0.5 0.30375517942139829 -0.9348623150369525 0 0.0017941058887945894 0 0
OPDX 0 1 0.66666666666666663 -0.5 -0.056782865260573925 -0.17475968960610877 0 0.0017941058887945894 0 0
OPDX 0 1 0.66666666666666663 -0.5 -0.12718416730299856 -0.39143261789778139 0 0.0037778863586184321 0 0
OPDX 0 1 0.66666666666666663 -0.5 -0.19066383785807431 -0.58680295491044643 0 0.0048999832645528546 0 0
OPDX 0 1 0.66666666666666663 -0.5 -0.24318471116777968 -0.74844558205379363 0 0.0048999832645528546 0 0
OPDX 0 1 0.66666666666666663 -0.5 -0.28163041455064713 -0.86676929043036754 0 0.0037778863586184321 0 0
OPDX 0 1 0.66666666666666663 -0.5 -0.30375517942139846 -0.93486231503695227 0 0.0017941058887945894 0 0
OPDX 0 1 0.66666666666666663 -0.5 -0.14865947123078802 -0.1080074280399569 0 0.0017941058887945894 0 0
OPDX 0 1 0.66666666666666663 -0.5 -0.33297247283010295 -0.24191866216617922 0 0.0037778863586184321 0 0
OPDX 0 1 0.66666666666666663 -0.5 -0.49916440793793693 -0.36266417083352775 0 0.0048999832645528546 0 0
OPDX 0 1 0.66666666666666663 -0.5 -0.63666583938157262 -0.46256480843894265 0 0.0048999832645528546 0 0
OPDX 0 1 0.66666666666666663 -0.5 -0.73731799755931626 -0.53569288189059594 0 0.0037778863586184321 0 0
OPDX 0 1 0.66666666666666663 -0.5 -0.79524138398404298 -0.57777668549424821 0 0.0017941058887945894 0 0
OPDX 0 1 0.66666666666666663 -0.5 -0.18375321194042835 1.4070235911248274e-16 0 0.0017941058887945894 0 0
OPDX 0 1 0.66666666666666663 -0.5 -0.41157661105420906 3.1514986605851528e-16 0 0.0037778863586184321 0 0
OPDX 0 1 0.66666666666666663 -0.5 -0.61700114015972574 4.724462504835531e-16 0 0.0048999832645528546 0 0
OPDX 0 1 0.66666666666666663 -0.5 -0.78696225642758655 6.025878124391163e-16 0 0.0048999832645528546 0 0
OPDX 0 1 0.66666666666666663 -0.5 -0.91137516601733903 6.9785248671866723e-16 0 0.0037778863586184321 0 0
OPDX 0 1 0.66666666666666663 -0.5 -0.98297240912528971 7.5267547949717992e-16 0 0.0017941058887945894 0 0
OPDX 0 1 0.66666666666666663 -0.5 -0.14865947123078796 0.10800742803995707 0 0.0017941058887945894 0 0
OPDX 0 1 0.66666666666666663 -0.5 -0.33297247283010278 0.2419186621661796 0 0.0037778863586184321 0 0
OPDX 0 1 0.66666666666666663 -0.5 -0.4991644079379367 0.36266417083352831 0 0.0048999832645528546 0 0
OPDX 0 1 0.66666666666666663 -0.5 -0.6366658393815724 0.46256480843894332 0 0.0048999832645528546 0 0
OPDX 0 1 0.66666666666666663 -0.5 -0.73731799755931593 0.53569288189059672 0 0.0037778863586184321 0 0
OPDX 0 1 0.66666666666666663 -0.5 -0.79524138398404265 0.5777766854942491 0 0.0017941058887945894 0 0
OPDX 0 1 0.66666666666666663 -0.5 -0.056782865260573752 0.17475968960610883 0 0.0017941058887945894 0 0
OPDX 0 1 0.66666666666666663 -0.5 -0.12718416730299817 0.39143261789778155 0 0.0037778863586184321 0 0
OPDX 0 1 0.66666666666666663 -0.5 -0.19066383785807373 0.58680295491044665 0 0.0048999832645528546 0 0
OPDX 0 1 0.66666666666666663 -0.5 -0.24318471116777896 0.74844558205379397 0 0.0048999832645528546 0 0
OPDX 0 1 0.66666666666666663 -0.5 -0.28163041455064625 0.86676929043036788 0 0.0037778863586184321 0 0
OPDX 0 1 0.66666666666666663 -0.5 -0.30375517942139751 0.93486231503695261 0 0.0017941058887945894 0 0
BLNK Operands for field 5.
OPDX 0 1 0.66666666666666663 -1 0.056782865260573891 0.17475968960610883 0 0.0017941058887945894 0 0
OPDX 0 1 0.66666666666666663 -1 0.1271841673029985 0.3914326178977815 0 0.0037778863586184321 0 0
OPDX 0 1 0.66666666666666663 -1 0.1906638378580742 0.58680295491044654 0 0.0048999832645528546 0 0
OPDX 0 1 0.66666666666666663 -1 0.24318471116777957 0.74844558205379386 0 0.0048999832645528546 0 0
OPDX 0 1 0.66666666666666663 -1 0.28163041455064697 0.86676929043036777 0 0.0037778863586184321 0 0
OPDX 0 1 0.66666666666666663 -1 0.30375517942139829 0.9348623150369525 0 0.0017941058887945894 0 0
OPDX 0 1 0.66666666666666663 -1 0.14865947123078804 0.10800742803995696 0 0.0017941058887945894 0 0
OPDX 0 1 0.66666666666666663 -1 0.33297247283010301 0.24191866216617935 0 0.0037778863586184321 0 0